---- qbsp / ericw-tools v0.18.1-32-g6660c5f ----
Input file: CheyenneMountain.map
Output file: CheyenneMountain.bsp

---- LoadMapFile ----
*** WARNING 06: No info_player_deathmatch entities in level
         5825 faces
          973 brushes
          238 entities
           18 unique texnames
          179 texinfo

Opened WAD: E:/2simm/Documents/GitHub/CheyenneMountain-QuakeMap/wads/SiN.wad
Opened WAD: E:/2simm/Documents/GitHub/CheyenneMountain-QuakeMap/wads/prototype.wad
Processing hull 0...
---- Brush_LoadEntity ----
          928 brushes
         1172 planes
---- CSGFaces ----
         5548 brushfaces
         5316 csgfaces
         4569 mergedfaces
---- SolidBSP ----
         6101 split nodes
         2445 solid leafs
         3649 empty leafs
            8 water leafs
            0 detail leafs
            0 detail illusionary leafs
            0 detail fence leafs
            0 illusionary visblocker leafs
        10323 leaffaces
         9031 nodefaces
---- Portalize ----
         3657 vis leafs
         3657 vis clusters
        12244 vis portals
---- FillOutside ----
*** WARNING 10: Reached occupant at (376 808 8), no filling performed.
Leak file written to CheyenneMountain.pts
---- MakeFaceEdges ----
---- GrowRegions ----
Processing hull 1...
Processing hull 2...
---- WriteBSPFile ----
Wrote CheyenneMountain.bsp
         2078 planes            41560
        12148 vertexes         145776
         6347 nodes            152328
          141 texinfo            5640
         9299 faces            185980
         3442 clipnodes         27536
         3897 leafs            109116
        10592 marksurfaces      21184
        37337 surfedges        149348
        25162 edges            100648
           20 textures         289204
              lightdata             0
              visdata               0
              entdata           12499

1.215 seconds elapsed
Peak memory usage: 44953604 (42.9M)
