---- qbsp / ericw-tools v0.18.1-32-g6660c5f ----
Input file: CheyenneMountain.map
Output file: CheyenneMountain.bsp

---- LoadMapFile ----
*** WARNING 06: No info_player_deathmatch entities in level
         1180 faces
          198 brushes
           80 entities
            8 unique texnames
           55 texinfo

Opened WAD: E:/2simm/Documents/GitHub/CheyenneMountain-QuakeMap/wads/SiN.wad
Opened WAD: E:/2simm/Documents/GitHub/CheyenneMountain-QuakeMap/wads/prototype.wad
Processing hull 0...
---- Brush_LoadEntity ----
          189 brushes
          269 planes
---- CSGFaces ----
         1126 brushfaces
         1030 csgfaces
          936 mergedfaces
---- SolidBSP ----
         1211 split nodes
          499 solid leafs
          713 empty leafs
            0 water leafs
            0 detail leafs
            0 detail illusionary leafs
            0 detail fence leafs
            0 illusionary visblocker leafs
         2162 leaffaces
         1934 nodefaces
---- Portalize ----
          713 vis leafs
          713 vis clusters
         2045 vis portals
---- FillOutside ----
*** WARNING 10: Reached occupant at (376 808 8), no filling performed.
Leak file written to CheyenneMountain.pts
---- MakeFaceEdges ----
---- GrowRegions ----
Processing hull 1...
Processing hull 2...
---- WriteBSPFile ----
Wrote CheyenneMountain.bsp
          524 planes            10480
         2640 vertexes          31680
         1265 nodes             30360
           44 texinfo            1760
         1988 faces             39760
          828 clipnodes          6624
          768 leafs             21504
         2216 marksurfaces       4432
         7956 surfedges         31824
         5391 edges             21564
            8 textures         137716
              lightdata             0
              visdata               0
              entdata            7096

0.324 seconds elapsed
Peak memory usage: 11271400 (10.7M)
