---- qbsp / ericw-tools v0.18.1-32-g6660c5f ----
Input file: CheyenneMountain.map
Output file: CheyenneMountain.bsp

---- LoadMapFile ----
*** WARNING 06: No info_player_deathmatch entities in level
         3767 faces
          630 brushes
          162 entities
           15 unique texnames
          103 texinfo

Opened WAD: E:/2simm/Documents/GitHub/CheyenneMountain-QuakeMap/wads/SiN.wad
Opened WAD: E:/2simm/Documents/GitHub/CheyenneMountain-QuakeMap/wads/prototype.wad
Processing hull 0...
---- Brush_LoadEntity ----
          597 brushes
          747 planes
---- CSGFaces ----
         3570 brushfaces
         3439 csgfaces
         2965 mergedfaces
---- SolidBSP ----
         4150 split nodes
         1629 solid leafs
         2522 empty leafs
            0 water leafs
            0 detail leafs
            0 detail illusionary leafs
            0 detail fence leafs
            0 illusionary visblocker leafs
         6908 leaffaces
         6083 nodefaces
---- Portalize ----
         2522 vis leafs
         2522 vis clusters
         8280 vis portals
---- FillOutside ----
*** WARNING 10: Reached occupant at (376 808 8), no filling performed.
Leak file written to CheyenneMountain.pts
---- MakeFaceEdges ----
---- GrowRegions ----
Processing hull 1...
Processing hull 2...
---- WriteBSPFile ----
Wrote CheyenneMountain.bsp
         1238 planes            24760
         8176 vertexes          98112
         4317 nodes            103608
           78 texinfo            3120
         6289 faces            125780
         1801 clipnodes         14408
         2686 leafs             75208
         7114 marksurfaces      14228
        25239 surfedges        100956
        16983 edges             67932
           17 textures         256432
              lightdata             0
              visdata               0
              entdata           10600

0.846 seconds elapsed
Peak memory usage: 29380948 (28.0M)
