---- qbsp / ericw-tools v0.18.1-32-g6660c5f ----
Input file: CheyenneMountain.map
Output file: CheyenneMountain.bsp

---- LoadMapFile ----
*** WARNING 06: No info_player_deathmatch entities in level
         5819 faces
          972 brushes
          238 entities
           18 unique texnames
          179 texinfo

Opened WAD: E:/2simm/Documents/GitHub/CheyenneMountain-QuakeMap/wads/SiN.wad
Opened WAD: E:/2simm/Documents/GitHub/CheyenneMountain-QuakeMap/wads/prototype.wad
Processing hull 0...
---- Brush_LoadEntity ----
          927 brushes
         1172 planes
---- CSGFaces ----
         5542 brushfaces
         5317 csgfaces
         4565 mergedfaces
---- SolidBSP ----
         6095 split nodes
         2444 solid leafs
         3644 empty leafs
            8 water leafs
            0 detail leafs
            0 detail illusionary leafs
            0 detail fence leafs
            0 illusionary visblocker leafs
        10301 leaffaces
         9011 nodefaces
---- Portalize ----
         3652 vis leafs
         3652 vis clusters
        12233 vis portals
---- FillOutside ----
*** WARNING 10: Reached occupant at (376 808 8), no filling performed.
Leak file written to CheyenneMountain.pts
---- MakeFaceEdges ----
---- GrowRegions ----
Processing hull 1...
Processing hull 2...
---- WriteBSPFile ----
Wrote CheyenneMountain.bsp
         2078 planes            41560
        12128 vertexes         145536
         6341 nodes            152184
          140 texinfo            5600
         9279 faces            185580
         3442 clipnodes         27536
         3892 leafs            108976
        10570 marksurfaces      21140
        37257 surfedges        149028
        25123 edges            100492
           20 textures         289204
              lightdata             0
              visdata               0
              entdata           12512

1.210 seconds elapsed
Peak memory usage: 44890988 (42.8M)
