---- qbsp / ericw-tools v0.18.1-32-g6660c5f ----
Input file: CheyenneMountain.map
Output file: CheyenneMountain.bsp

---- LoadMapFile ----
*** WARNING 06: No info_player_deathmatch entities in level
         1515 faces
          254 brushes
           88 entities
           12 unique texnames
           73 texinfo

Opened WAD: E:/2simm/Documents/GitHub/CheyenneMountain-QuakeMap/wads/SiN.wad
Opened WAD: E:/2simm/Documents/GitHub/CheyenneMountain-QuakeMap/wads/prototype.wad
Processing hull 0...
---- Brush_LoadEntity ----
          236 brushes
          409 planes
---- CSGFaces ----
         1408 brushfaces
         1385 csgfaces
         1248 mergedfaces
---- SolidBSP ----
         1628 split nodes
          624 solid leafs
         1005 empty leafs
            0 water leafs
            0 detail leafs
            0 detail illusionary leafs
            0 detail fence leafs
            0 illusionary visblocker leafs
         2970 leaffaces
         2540 nodefaces
---- Portalize ----
         1005 vis leafs
         1005 vis clusters
         3100 vis portals
---- FillOutside ----
*** WARNING 10: Reached occupant at (376 808 8), no filling performed.
Leak file written to CheyenneMountain.pts
---- MakeFaceEdges ----
---- GrowRegions ----
Processing hull 1...
Processing hull 2...
---- WriteBSPFile ----
Wrote CheyenneMountain.bsp
          863 planes            17260
         3512 vertexes          42144
         1723 nodes             41352
           55 texinfo            2200
         2654 faces             53080
         1387 clipnodes         11096
         1100 leafs             30800
         3086 marksurfaces       6172
        10630 surfedges         42520
         7224 edges             28896
           14 textures         191020
              lightdata             0
              visdata               0
              entdata            7870

0.475 seconds elapsed
Peak memory usage: 15840684 (15.1M)
